RepresentativeLVNetworks-0.2.0/data/D/Lines.dss
New Line.line0 Units=km Length=0.10372 bus1=57.1.2.3 bus2=58.1.2.3 switch=n enabled=y phases=3 Linecode=185_SQ_MM_CU_3
New Line.line1 Units=km Length=0.001 bus1=58.1.2.3 bus2=59.1.2.3 switch=n enabled=y phases=3 Linecode=66_HDCU_(19/2.11)_3
New Line.line10 Units=km Length=0.034659999999999996 bus1=62.1.2.3 bus2=63.1.2.3 switch=n enabled=y phases=3 Linecode=66_HDCU_(19/2.11)_3
New Line.line11 Units=km Length=0.028280000000000003 bus1=63.1.2.3 bus2=64.1.2.3 switch=n enabled=y phases=3 Linecode=66_HDCU_(19/2.11)_3
New Line.line12 Units=km Length=0.02911 bus1=64.1.2.3 bus2=46.1.2.3 switch=n enabled=y phases=3 Linecode=66_HDCU_(19/2.11)_3
New Line.line13 Units=km Length=0.0021000000000000003 bus1=46.1.2.3 bus2=083.1.2.3 switch=n enabled=y phases=3 Linecode=66_HDCU_(19/2.11)_3
New Line.line14 Units=km Length=0.0207 bus1=61.1.2.3 bus2=089.1.2.3 switch=n enabled=y phases=3 Linecode=unknown_linecode_3
New Line.line15 Units=km Length=0.0025 bus1=61.1.2.3 bus2=084.1.2.3 switch=n enabled=y phases=3 Linecode=7/4.4_Al_3
New Line.line16 Units=km Length=0.002 bus1=62.1.2.3 bus2=087.1.2.3 switch=n enabled=y phases=3 Linecode=66_HDCU_(19/2.11)_3
New Line.line17 Units=km Length=0.001 bus1=46.1.2.3 bus2=090.1.2.3 switch=n enabled=y phases=3 Linecode=66_HDCU_(19/2.11)_3
New Line.line2 Units=km Length=0.001 bus1=59.1.2.3 bus2=60.1.2.3 switch=n enabled=y phases=3 Linecode=66_HDCU_(19/2.11)_3
New Line.line3 Units=km Length=0.04157 bus1=60.1.2.3 bus2=48.1.2.3 switch=n enabled=y phases=3 Linecode=66_HDCU_(19/2.11)_3
New Line.line4 Units=km Length=0.001 bus1=48.1.2.3 bus2=61.1.2.3 switch=n enabled=y phases=3 Linecode=66_HDCU_(19/2.11)_3
New Line.line5 Units=km Length=0.001 bus1=59.1.2.3 bus2=088.1.2.3 switch=n enabled=y phases=3 Linecode=unknown_linecode_3
New Line.line6 Units=km Length=0.032909999999999995 bus1=61.1.2.3 bus2=34.1.2.3 switch=n enabled=y phases=3 Linecode=66_HDCU_(19/2.11)_3
New Line.line7 Units=km Length=0.001 bus1=34.1.2.3 bus2=079.1.2.3 switch=n enabled=y phases=3 Linecode=66_HDCU_(19/2.11)_3
New Line.line8 Units=km Length=0.03058 bus1=60.1.2.3 bus2=56.1.2.3 switch=n enabled=y phases=3 Linecode=66_HDCU_(19/2.11)_3
New Line.line9 Units=km Length=0.001 bus1=56.1.2.3 bus2=62.1.2.3 switch=n enabled=y phases=3 Linecode=66_HDCU_(19/2.11)_3
